Version 4
SHEET 1 880 680
WIRE 464 -160 464 -240
WIRE 272 -96 272 -176
WIRE 464 -48 464 -80
WIRE 576 -48 464 -48
WIRE 464 -16 464 -48
WIRE 704 16 576 16
WIRE 128 32 64 32
WIRE 272 32 272 -16
WIRE 272 32 192 32
WIRE 400 32 272 32
WIRE 576 32 576 16
WIRE 272 96 272 32
WIRE 64 112 64 32
WIRE 464 112 464 80
WIRE 576 112 464 112
WIRE 464 128 464 112
WIRE 64 240 64 192
WIRE 272 240 272 176
WIRE 464 240 464 208
FLAG 64 240 0
FLAG 464 240 0
FLAG 272 240 0
FLAG -112 -176 0
FLAG -112 -256 9V
FLAG 272 -176 9V
FLAG 464 -240 9V
SYMBOL voltage 64 96 R0
WINDOW 123 24 124 Left 2
WINDOW 39 0 0 Left 0
SYMATTR InstName V1
SYMATTR Value ""
SYMATTR Value2 AC 1
SYMBOL npn 400 -16 R0
SYMATTR InstName Q1
SYMBOL res 448 112 R0
SYMATTR InstName R1
SYMATTR Value 2.2k
SYMBOL res 448 -176 R0
SYMATTR InstName R2
SYMATTR Value 2.2k
SYMBOL cap 192 16 R90
WINDOW 0 0 32 VBottom 2
WINDOW 3 32 32 VTop 2
SYMATTR InstName C1
SYMATTR Value 10µ
SYMBOL res 256 -112 R0
SYMATTR InstName R3
SYMATTR Value 47k
SYMBOL res 256 80 R0
SYMATTR InstName R4
SYMATTR Value 22k
SYMBOL voltage -112 -272 R0
WINDOW 123 0 0 Left 0
WINDOW 39 0 0 Left 0
SYMATTR InstName V2
SYMATTR Value 9
SYMBOL res 560 16 R0
SYMATTR InstName R5
SYMATTR Value 100
SYMBOL cap 560 -48 R0
SYMATTR InstName C2
SYMATTR Value .47µ
TEXT -354 -64 Left 2 !.ac oct 10000 10 40k
