Version 4
SHEET 1 1688 1336
WIRE 576 -64 464 -64
WIRE 576 -32 576 -64
WIRE -496 0 -496 -16
WIRE -336 0 -496 0
WIRE -496 16 -496 0
WIRE -336 16 -336 0
WIRE 576 64 576 48
WIRE 640 64 576 64
WIRE 1216 64 640 64
WIRE -336 112 -336 96
WIRE -240 112 -336 112
WIRE 720 112 672 112
WIRE 832 112 784 112
WIRE -496 128 -496 96
WIRE -496 128 -560 128
WIRE -336 128 -336 112
WIRE -560 144 -560 128
WIRE -496 144 -496 128
WIRE 576 144 576 128
WIRE 208 208 176 208
WIRE 352 208 288 208
WIRE 464 224 464 -64
WIRE 464 224 416 224
WIRE 496 224 464 224
WIRE 672 224 672 112
WIRE 672 224 656 224
WIRE 688 224 672 224
WIRE 352 240 320 240
WIRE 832 240 832 112
WIRE 832 240 752 240
WIRE 896 240 832 240
WIRE 1040 240 960 240
WIRE 688 256 656 256
WIRE -496 272 -496 224
WIRE 1040 272 1040 240
WIRE 320 352 320 240
WIRE 352 352 320 352
WIRE 496 352 496 224
WIRE 496 352 432 352
WIRE 1040 368 1040 352
WIRE 320 400 320 352
WIRE 576 400 320 400
WIRE 832 400 832 240
WIRE 832 400 656 400
FLAG -560 144 0
FLAG -496 -16 +15V
FLAG -496 272 -15V
FLAG -336 208 0
FLAG -240 112 VREF
FLAG 384 192 +15V
FLAG 720 208 +15V
FLAG 176 208 VREF
FLAG 384 256 0
FLAG 720 272 0
FLAG 656 336 VREF
FLAG 1040 368 0
FLAG 576 144 0
FLAG 640 128 0
FLAG 1216 64 lfo_square
FLAG 1040 240 lfo_tri
SYMBOL voltage -496 0 R0
WINDOW 123 0 0 Left 0
WINDOW 39 0 0 Left 0
SYMATTR InstName V3
SYMATTR Value 15
SYMBOL voltage -496 128 R0
WINDOW 123 0 0 Left 0
WINDOW 39 0 0 Left 0
SYMATTR InstName V4
SYMATTR Value 15
SYMBOL res -352 0 R0
SYMATTR InstName R2
SYMATTR Value 100k
SYMBOL res -352 112 R0
SYMATTR InstName R5
SYMATTR Value 100k
SYMBOL Opamps\\AD795 384 160 R0
WINDOW 3 22 98 Left 2
SYMATTR InstName U1
SYMBOL res 448 336 R90
WINDOW 0 0 56 VBottom 2
WINDOW 3 32 56 VTop 2
SYMATTR InstName R6
SYMATTR Value 10k
SYMBOL res 672 208 R90
WINDOW 0 0 56 VBottom 2
WINDOW 3 32 56 VTop 2
SYMATTR InstName R7
SYMATTR Value 10k
SYMBOL Opamps\\AD795 720 176 R0
WINDOW 3 22 98 Left 2
SYMATTR InstName U3
SYMBOL cap 784 96 R90
WINDOW 0 0 32 VBottom 2
WINDOW 3 32 32 VTop 2
SYMATTR InstName C2
SYMATTR Value 22µ
SYMBOL res 672 384 R90
WINDOW 0 0 56 VBottom 2
WINDOW 3 32 56 VTop 2
SYMATTR InstName R8
SYMATTR Value 2.2k
SYMBOL res 304 192 R90
WINDOW 0 0 56 VBottom 2
WINDOW 3 32 56 VTop 2
SYMATTR InstName R9
SYMATTR Value 470k
SYMBOL res 640 240 R0
SYMATTR InstName R10
SYMATTR Value 470k
SYMBOL cap 960 224 R90
WINDOW 0 0 32 VBottom 2
WINDOW 3 32 32 VTop 2
SYMATTR InstName C3
SYMATTR Value 22µ
SYMBOL res 1024 256 R0
SYMATTR InstName R11
SYMATTR Value 100k
SYMBOL res 592 208 R90
WINDOW 0 0 56 VBottom 2
WINDOW 3 32 56 VTop 2
SYMATTR InstName R12
SYMATTR Value 470
SYMBOL zener 592 128 R180
WINDOW 0 24 64 Left 2
WINDOW 3 24 0 Left 2
SYMATTR InstName D1
SYMATTR Value 1N750
SYMBOL res 560 -48 R0
SYMATTR InstName R13
SYMATTR Value 860
SYMBOL cap 624 64 R0
SYMATTR InstName C4
SYMATTR Value 1µ
TEXT -144 232 Left 2 !.tran 0 0.25 0 0.01
