Version 4
SHEET 1 880 680
WIRE -688 -80 -688 -96
WIRE -816 0 -816 -16
WIRE -816 0 -880 0
WIRE -880 16 -880 0
WIRE -816 16 -816 0
WIRE -688 16 -688 0
WIRE 192 16 -688 16
WIRE 336 16 272 16
WIRE -688 48 -688 16
WIRE -112 48 -224 48
WIRE 48 48 -32 48
WIRE 160 48 48 48
WIRE 240 48 160 48
WIRE 336 48 336 16
WIRE 336 48 304 48
WIRE 400 48 336 48
WIRE 512 64 464 64
WIRE 544 64 512 64
WIRE 656 64 608 64
WIRE -224 80 -224 48
WIRE 48 80 48 48
WIRE 400 80 368 80
WIRE 656 80 656 64
WIRE 368 160 368 80
WIRE 512 160 512 64
WIRE 512 160 368 160
WIRE 48 176 48 144
WIRE 160 192 160 48
WIRE 656 208 656 160
WIRE -368 256 -384 256
WIRE -288 256 -304 256
WIRE -176 256 -208 256
WIRE -144 256 -176 256
WIRE 48 256 -64 256
WIRE 112 256 48 256
WIRE -384 272 -384 256
WIRE 160 336 160 288
WIRE 160 448 160 416
WIRE -368 480 -384 480
WIRE -288 480 -304 480
WIRE -176 480 -176 256
WIRE -176 480 -208 480
WIRE -384 496 -384 480
FLAG -224 160 0
FLAG -384 352 0
FLAG -880 16 0
FLAG -816 -96 15
FLAG -816 96 -15
FLAG 160 448 0
FLAG 656 208 0
FLAG -384 576 0
FLAG -688 128 0
FLAG -688 -96 15
FLAG 432 32 0
FLAG 432 96 15
DATAFLAG -224 48 ""
DATAFLAG 160 48 ""
DATAFLAG 160 320 ""
DATAFLAG 0 256 ""
DATAFLAG -384 256 ""
DATAFLAG -384 480 ""
SYMBOL res -16 32 R90
WINDOW 0 0 56 VBottom 2
WINDOW 3 32 56 VTop 2
SYMATTR InstName R1
SYMATTR Value 22k
SYMBOL res -160 272 R270
WINDOW 0 32 56 VTop 2
WINDOW 3 0 56 VBottom 2
SYMATTR InstName R3
SYMATTR Value 1Meg
SYMBOL voltage -224 64 R0
WINDOW 123 0 0 Left 0
WINDOW 39 0 0 Left 0
SYMATTR InstName V1
SYMATTR Value PULSE(0 3.3 0 0 0 .001 .002)
SYMBOL voltage -384 256 R0
WINDOW 123 0 0 Left 0
WINDOW 39 0 0 Left 0
SYMATTR InstName V2
SYMATTR Value PULSE(0 3.3 0 .1 0 .05 .1)
SYMBOL voltage -816 -112 R0
WINDOW 123 0 0 Left 0
WINDOW 39 0 0 Left 0
SYMATTR InstName V3
SYMATTR Value 15
SYMBOL voltage -816 0 R0
WINDOW 123 0 0 Left 0
WINDOW 39 0 0 Left 0
SYMATTR InstName V4
SYMATTR Value 15
SYMBOL Opamps\\AD795 432 128 M180
SYMATTR InstName U1
SYMBOL cap 608 48 R90
WINDOW 0 0 32 VBottom 2
WINDOW 3 32 32 VTop 2
SYMATTR InstName C1
SYMATTR Value 220µ
SYMBOL res 640 64 R0
SYMATTR InstName R5
SYMATTR Value 100k
SYMBOL res 144 320 R0
SYMATTR InstName R6
SYMATTR Value 100
SYMBOL voltage -384 480 R0
WINDOW 123 0 0 Left 0
WINDOW 39 0 0 Left 0
SYMATTR InstName V5
SYMATTR Value PULSE(0 3.3 0 1.6 0 .4 .8)
SYMBOL res -192 240 R90
WINDOW 0 0 56 VBottom 2
WINDOW 3 32 56 VTop 2
SYMATTR InstName R9
SYMATTR Value 1Meg
SYMBOL res -192 464 R90
WINDOW 0 0 56 VBottom 2
WINDOW 3 32 56 VTop 2
SYMATTR InstName R10
SYMATTR Value 500k
SYMBOL pjf 112 192 R0
SYMATTR InstName J1
SYMBOL res 32 160 R0
SYMATTR InstName R11
SYMATTR Value 1Meg
SYMBOL cap 32 80 R0
SYMATTR InstName C4
SYMATTR Value 1n
SYMBOL res -704 -96 R0
SYMATTR InstName R2
SYMATTR Value 100k
SYMBOL res -704 32 R0
SYMATTR InstName R4
SYMATTR Value 100k
SYMBOL res 288 0 R90
WINDOW 0 0 56 VBottom 2
WINDOW 3 32 56 VTop 2
SYMATTR InstName R7
SYMATTR Value 470k
SYMBOL cap 304 32 R90
WINDOW 0 0 32 VBottom 2
WINDOW 3 32 32 VTop 2
SYMATTR InstName C2
SYMATTR Value 22µ
SYMBOL cap -304 240 R90
WINDOW 0 0 32 VBottom 2
WINDOW 3 32 32 VTop 2
SYMATTR InstName C3
SYMATTR Value 220µ
SYMBOL cap -304 464 R90
WINDOW 0 0 32 VBottom 2
WINDOW 3 32 32 VTop 2
SYMATTR InstName C5
SYMATTR Value 220µ
TEXT -1184 208 Left 2 !.tran 0 2 0 .01
